NSC 707544
 ccorina  04030323373D 1   1.00000     0.00000 
CORINA 2.61 0041  25.10.2001
 82 83  0  0  0  0  0  0  0  0  1 V2000
    1.4913    1.2115   -0.1539 C   0  0  0  0  0  0  0  0  0  0  0  0
    1.0853    1.9240    1.1105 C   0  0  0  0  0  0  0  0  0  0  0  0
   -0.0666    1.8948    1.4889 O   0  0  0  0  0  0  0  0  0  0  0  0
    1.5600    3.2235    3.0818 C   0  0  0  0  0  0  0  0  0  0  0  0
    0.8892    1.0137    3.6036 O   0  0  0  0  0  0  0  0  0  0  0  0
    2.0288    2.6013    1.8239 N   0  0  0  0  0  0  0  0  0  0  0  0
   -1.4753    0.9951    3.3614 O   0  0  0  0  0  0  0  0  0  0  0  0
   -2.4282   -1.4302    3.8074 C   0  0  0  0  0  0  0  0  0  0  0  0
   -1.4761   -1.4703    2.6400 C   0  0  0  0  0  0  0  0  0  0  0  0
   -0.2801   -1.3624    2.8100 O   0  0  0  0  0  0  0  0  0  0  0  0
   -2.6689   -2.8509    4.3215 C   0  0  0  0  0  0  0  0  0  0  0  0
   -1.8317   -0.6088    4.8825 N   0  0  0  0  0  0  0  0  0  0  0  0
   -1.9947   -1.6316    1.3809 N   0  0  0  0  0  0  0  0  0  0  0  0
   -0.9754   -1.6576    0.3010 C   0  0  0  0  0  0  0  0  0  0  0  0
   -0.3636   -0.2848    0.1952 C   0  0  0  0  0  0  0  0  0  0  0  0
    0.1099   -2.6812    0.6407 C   0  0  0  0  0  0  0  0  0  0  0  0
   -3.4305   -1.7675    1.1233 C   0  0  0  0  0  0  0  0  0  0  0  0
   -0.5399   -3.9429    1.2121 C   0  0  0  0  0  0  0  0  0  0  0  0
   -0.7705    1.5208    5.5586 C   0  0  0  0  0  0  0  0  0  0  0  0
   -1.3831    0.6251    4.5127 C   0  0  0  0  0  0  0  0  0  0  0  0
    0.2066    0.7161    6.4181 C   0  0  0  0  0  0  0  0  0  0  0  0
    4.9504    0.3901   -1.6322 C   0  0  0  0  0  0  0  0  0  0  0  0
    6.6706   -0.4864   -3.1564 C   0  0  0  0  0  0  0  0  0  0  0  0
    7.5853   -0.0018   -2.3642 N   0  0  0  0  0  0  0  0  0  0  0  0
    7.0364   -1.1582   -4.2987 N   0  0  0  0  0  0  0  0  0  0  0  0
    3.4243    0.4270   -1.5287 C   0  0  0  0  0  0  0  0  0  0  0  0
    3.0173    1.1746   -0.2574 C   0  0  0  0  0  0  0  0  0  0  0  0
   -1.0417    0.7049    0.3725 O   0  0  0  0  0  0  0  0  0  0  0  0
    0.9618   -0.1693   -0.1019 N   0  0  0  0  0  0  0  0  0  0  0  0
    5.3401   -0.3258   -2.8495 N   0  0  0  0  0  0  0  0  0  0  0  0
    0.7834    2.1939    3.8618 C   0  0  0  0  0  0  0  0  0  0  0  0
   -0.0440    2.6172    4.8686 N   0  0  0  0  0  0  0  0  0  0  0  0
    0.8362    1.6220    7.4447 C   0  0  0  0  0  0  0  0  0  0  0  0
    1.7323    1.1299    8.3146 O   0  0  0  0  0  0  0  0  0  0  0  0
    0.5343    2.7913    7.4849 O   0  0  0  0  0  0  0  0  0  0  0  0
   -3.6091   -2.8067    5.4984 C   0  0  0  0  0  0  0  0  0  0  0  0
   -4.9737   -2.8966    5.2966 C   0  0  0  0  0  0  0  0  0  0  0  0
   -5.8358   -2.8617    6.3766 C   0  0  0  0  0  0  0  0  0  0  0  0
   -5.3333   -2.7375    7.6584 C   0  0  0  0  0  0  0  0  0  0  0  0
   -3.9687   -2.6481    7.8602 C   0  0  0  0  0  0  0  0  0  0  0  0
   -3.1067   -2.6820    6.7801 C   0  0  0  0  0  0  0  0  0  0  0  0
    0.8890   -3.0381   -0.6268 C   0  0  0  0  0  0  0  0  0  0  0  0
    1.0772    1.7312   -1.0180 H   0  0  0  0  0  0  0  0  0  0  0  0
    2.4165    3.5581    3.6671 H   0  0  0  0  0  0  0  0  0  0  0  0
    0.9165    4.0731    2.8534 H   0  0  0  0  0  0  0  0  0  0  0  0
    2.9493    2.6707    1.5259 H   0  0  0  0  0  0  0  0  0  0  0  0
   -3.3748   -0.9899    3.4940 H   0  0  0  0  0  0  0  0  0  0  0  0
   -3.1086   -3.4549    3.5277 H   0  0  0  0  0  0  0  0  0  0  0  0
   -1.7208   -3.2912    4.6302 H   0  0  0  0  0  0  0  0  0  0  0  0
   -1.7633   -0.9284    5.7957 H   0  0  0  0  0  0  0  0  0  0  0  0
   -1.4478   -1.9233   -0.6447 H   0  0  0  0  0  0  0  0  0  0  0  0
    0.7910   -2.2572    1.3785 H   0  0  0  0  0  0  0  0  0  0  0  0
   -3.9751   -1.7181    2.0661 H   0  0  0  0  0  0  0  0  0  0  0  0
   -3.7605   -0.9595    0.4703 H   0  0  0  0  0  0  0  0  0  0  0  0
   -3.6240   -2.7260    0.6416 H   0  0  0  0  0  0  0  0  0  0  0  0
   -1.0949   -3.6887    2.1151 H   0  0  0  0  0  0  0  0  0  0  0  0
   -1.2210   -4.3669    0.4743 H   0  0  0  0  0  0  0  0  0  0  0  0
    0.2333   -4.6721    1.4541 H   0  0  0  0  0  0  0  0  0  0  0  0
   -1.5548    1.9398    6.1891 H   0  0  0  0  0  0  0  0  0  0  0  0
   -0.3300   -0.0873    6.9227 H   0  0  0  0  0  0  0  0  0  0  0  0
    0.9840    0.2911    5.7831 H   0  0  0  0  0  0  0  0  0  0  0  0
    5.3367    1.4087   -1.6703 H   0  0  0  0  0  0  0  0  0  0  0  0
    5.3613   -0.1220   -0.7622 H   0  0  0  0  0  0  0  0  0  0  0  0
    7.3272    0.4723   -1.5582 H   0  0  0  0  0  0  0  0  0  0  0  0
    6.3557   -1.5189   -4.8882 H   0  0  0  0  0  0  0  0  0  0  0  0
    7.9751   -1.2716   -4.5152 H   0  0  0  0  0  0  0  0  0  0  0  0
    3.0134    0.9391   -2.3988 H   0  0  0  0  0  0  0  0  0  0  0  0
    3.0381   -0.5916   -1.4907 H   0  0  0  0  0  0  0  0  0  0  0  0
    3.4036    2.1932   -0.2955 H   0  0  0  0  0  0  0  0  0  0  0  0
    3.4282    0.6625    0.6126 H   0  0  0  0  0  0  0  0  0  0  0  0
    1.5222   -0.9432   -0.2690 H   0  0  0  0  0  0  0  0  0  0  0  0
    4.6595   -0.6865   -3.4390 H   0  0  0  0  0  0  0  0  0  0  0  0
   -0.1466    3.5512    5.1094 H   0  0  0  0  0  0  0  0  0  0  0  0
    2.1363    1.7112    8.9734 H   0  0  0  0  0  0  0  0  0  0  0  0
   -5.3663   -2.9936    4.2952 H   0  0  0  0  0  0  0  0  0  0  0  0
   -6.9020   -2.9312    6.2190 H   0  0  0  0  0  0  0  0  0  0  0  0
   -6.0069   -2.7106    8.5022 H   0  0  0  0  0  0  0  0  0  0  0  0
   -3.5762   -2.5507    8.8616 H   0  0  0  0  0  0  0  0  0  0  0  0
   -2.0405   -2.6117    6.9377 H   0  0  0  0  0  0  0  0  0  0  0  0
    1.8275   -3.5200   -0.3529 H   0  0  0  0  0  0  0  0  0  0  0  0
    0.2962   -3.7183   -1.2383 H   0  0  0  0  0  0  0  0  0  0  0  0
    1.0985   -2.1301   -1.1924 H   0  0  0  0  0  0  0  0  0  0  0  0
  1 29  1  0  0  0  0
  1 27  1  0  0  0  0
  1  2  1  0  0  0  0
  1 43  1  0  0  0  0
  2  6  1  0  0  0  0
  2  3  2  0  0  0  0
  4  6  1  0  0  0  0
  4 31  1  0  0  0  0
  4 44  1  0  0  0  0
  4 45  1  0  0  0  0
  5 31  2  0  0  0  0
  6 46  1  0  0  0  0
  7 20  2  0  0  0  0
  8 11  1  0  0  0  0
  8 12  1  0  0  0  0
  8  9  1  0  0  0  0
  8 47  1  0  0  0  0
  9 10  2  0  0  0  0
  9 13  1  0  0  0  0
 11 36  1  0  0  0  0
 11 48  1  0  0  0  0
 11 49  1  0  0  0  0
 12 20  1  0  0  0  0
 12 50  1  0  0  0  0
 13 14  1  0  0  0  0
 13 17  1  0  0  0  0
 14 16  1  0  0  0  0
 14 15  1  0  0  0  0
 14 51  1  0  0  0  0
 15 29  1  0  0  0  0
 15 28  2  0  0  0  0
 16 42  1  0  0  0  0
 16 18  1  0  0  0  0
 16 52  1  0  0  0  0
 17 53  1  0  0  0  0
 17 54  1  0  0  0  0
 17 55  1  0  0  0  0
 18 56  1  0  0  0  0
 18 57  1  0  0  0  0
 18 58  1  0  0  0  0
 19 21  1  0  0  0  0
 19 32  1  0  0  0  0
 19 20  1  0  0  0  0
 19 59  1  0  0  0  0
 21 33  1  0  0  0  0
 21 60  1  0  0  0  0
 21 61  1  0  0  0  0
 22 26  1  0  0  0  0
 22 30  1  0  0  0  0
 22 62  1  0  0  0  0
 22 63  1  0  0  0  0
 23 24  2  0  0  0  0
 23 25  1  0  0  0  0
 23 30  1  0  0  0  0
 24 64  1  0  0  0  0
 25 65  1  0  0  0  0
 25 66  1  0  0  0  0
 26 27  1  0  0  0  0
 26 67  1  0  0  0  0
 26 68  1  0  0  0  0
 27 69  1  0  0  0  0
 27 70  1  0  0  0  0
 29 71  1  0  0  0  0
 30 72  1  0  0  0  0
 31 32  1  0  0  0  0
 32 73  1  0  0  0  0
 33 35  2  0  0  0  0
 33 34  1  0  0  0  0
 34 74  1  0  0  0  0
 36 37  2  0  0  0  0
 36 41  1  0  0  0  0
 37 38  1  0  0  0  0
 37 75  1  0  0  0  0
 38 39  2  0  0  0  0
 38 76  1  0  0  0  0
 39 40  1  0  0  0  0
 39 77  1  0  0  0  0
 40 41  2  0  0  0  0
 40 78  1  0  0  0  0
 41 79  1  0  0  0  0
 42 80  1  0  0  0  0
 42 81  1  0  0  0  0
 42 82  1  0  0  0  0
M  END
